** Euler beam with five layers of elements to avoid volumetric locking
**
*Node
1,0,0
2,10,0
3,10,1
4,0,1
5,0.19999999999986,0
6,0.39999999999967,0
7,0.59999999999947,0
8,0.79999999999933,0
9,0.99999999999919,0
10,1.199999999999,0
11,1.3999999999986,0
12,1.599999999998,0
13,1.7999999999974,0
14,1.9999999999968,0
15,2.1999999999962,0
16,2.3999999999957,0
17,2.5999999999951,0
18,2.7999999999945,0
19,2.9999999999939,0
20,3.1999999999933,0
** ... 338 like lines cut
*Element, type=CPS3
1,120,161,300
2,174,136,301
3,181,115,182
4,161,120,344
5,136,174,345
6,141,168,169
7,171,169,285
8,182,184,219
9,175,158,177
10,159,162,164
11,115,181,341
12,169,167,285
13,180,182,219
14,168,141,348
15,177,158,342
16,159,164,343
17,182,115,183
18,349,308,353
19,141,169,170
20,184,185,298
** ... 584 like lines cut
*Material, NAME=STEEL,
*Elastic
210e9, 0.3
*Boundary, type=Displacement
 1,   1,   0.0
 1,   2,   0.0
 4,   1,   0.0
 4,   2,   0.0
107,  1,   0.0
107,  2,   0.0
108,  1,   0.0
108,  2,   0.0
109,  1,   0.0
109,  2,   0.0
110,  1,   0.0
110,  2,   0.0
*Boundary, type=Force
 2,   2,   -100.0
 3,   2,   -100.0
54,   2,   -100.0
55,   2,   -100.0
56,   2,   -100.0
57,   2,   -100.0
