** Example of 2D pin-jointed bar elements Abaqus mesh
**
*Node
      1,           0.,           0.
      2,           1.,           0.
      3,           2.,           0.
*Element, type=B21
 1,   1,   2
 2,   2,   3
*Material, NAME=STEEL,
*Elastic
210e9, 0.3
*Beam Section
1., 1.
*Boundary, type=Displacement
 1,   1,   0.0
 1,   2,   0.0
 1,   3,   0.0
*Boundary, type=Force
 3,   1,   1.0
 3,   2,   0.0
 3,   3,   1.0
