** Square made of two plain strain triangles
**
*Node
      1,           0.,           0.
      2,           1.,           0.
      3,           1.,           1.
      4,           0.,           1.
*Element, type=S3
 1,   1,   2,   3
 2,   1,   3,   4
*Material, NAME=STEEL,
*Elastic
210e9, 0.3
*Boundary, type=Displacement
 1,   2,   0.0
 1,   1,   0.0
 2,   2,   0.0
 4,   1,   0.0
*Boundary, type=Force
 3,   2,   100.0
 4,   2,   100.0
